Circuit: * C:\Users\Dani\Desktop\cuarto\EE005_CONT\laboratorios\control_sallen_key\lazo_cerrado\bloque_integrador.asc

WARNING: Less than two connections to node IDEAL.  This node is used by E:U3:1.
Direct Newton iteration for .op point succeeded.
Ignoring empty pin current: Ix(u3:en)
Ignoring empty pin current: Ix(u3:en)

Date: Sun Sep 15 18:41:14 2019
Total elapsed time: 0.237 seconds.

tnom = 27
temp = 27
method = trap
totiter = 30
traniter = 0
tranpoints = 0
accept = 0
rejected = 0
matrix size = 57
fillins = 111
solver = Normal
Matrix Compiler1:     520 opcodes
Matrix Compiler2: 6.69 KB object code size
