Circuit: * C:\Users\Dani\Desktop\cuarto\EE005_CONT\laboratorios\control_sallen_key\lazo_cerrado\bloque_integrador_activo.asc

WARNING: Less than two connections to node INTEGRADOR.  This node is used by V3.
WARNING: Less than two connections to node IDEAL.  This node is used by E:U4:1.
Per .tran options, skipping operating point for transient analysis.
Ignoring empty pin current: Ix(u4:en)

Date: Tue Sep 17 01:25:26 2019
Total elapsed time: 0.259 seconds.

tnom = 27
temp = 27
method = modified trap
totiter = 2329
traniter = 2329
tranpoints = 1162
accept = 1115
rejected = 47
matrix size = 59
fillins = 77
solver = Normal
Matrix Compiler1: 6.49 KB object code size  2.1/1.4/[0.5]
Matrix Compiler2: 6.13 KB object code size  0.9/1.4/[0.4]

