Circuit: * C:\Users\Dani\Desktop\cuarto\EE005_CONT\laboratorios\control_sallen_key\lazo_cerrado\bloque_integrador_activo.asc

WARNING: Less than two connections to node INTEGRADOR.  This node is used by V3.
WARNING: Less than two connections to node IDEAL.  This node is used by E:U3:1.
Early termination of direct N-R iteration.
Direct Newton iteration failed to find .op point.  (Use ".option noopiter" to skip.)
Starting Gmin stepping
Gmin = 10
vernier = 0.5
vernier = 0.25
vernier = 0.125
Gmin = 5.5165
vernier = 0.0625
vernier = 0.03125
vernier = 0.015625
vernier = 0.0078125
Gmin = 5.48432
vernier = 0.00390625
vernier = 0.00195313
vernier = 0.000976563
vernier = 0.000488281
Gmin = 0
Gmin stepping succeeded in finding the operating point.

Ignoring empty pin current: Ix(u4:en)
Ignoring empty pin current: Ix(u3:en)
Ignoring empty pin current: Ix(u4:en)
Ignoring empty pin current: Ix(u3:en)

Date: Sat Oct 26 16:25:33 2019
Total elapsed time: 0.293 seconds.

tnom = 27
temp = 27
method = trap
totiter = 1397
traniter = 0
tranpoints = 0
accept = 0
rejected = 0
matrix size = 61
fillins = 160
solver = Normal
Matrix Compiler1:     593 opcodes
Matrix Compiler2: 7.59 KB object code size  3.3/1.9/[0.8]

