Circuit: * C:\Users\Dani\Desktop\cuarto\EE005_CONT\laboratorios\control_sallen_key\lazo_cerrado\Draft7.asc

WARNING: Less than two connections to node N002.  This node is used by E1.

Date: Sun Sep 15 00:09:40 2019
Total elapsed time: 0.104 seconds.

tnom = 27
temp = 27
method = trap
totiter = 0
traniter = 0
tranpoints = 0
accept = 0
rejected = 0
matrix size = 4
fillins = 0
solver = Normal

