Circuit: * C:\Users\Dani\Desktop\cuarto\EE005_CONT\laboratorios\control_sallen_key\lazo_cerrado\Draft1.asc

WARNING: Node NC_02 is floating.
WARNING: Node NC_01 is floating.
WARNING: Node NC_05 is floating.
WARNING: Node NC_04 is floating.

WARNING: Less than two connections to node NC_02.  This node is used by J:U11:1.
WARNING: Less than two connections to node NC_01.  This node is used by J:U11:2.
WARNING: Less than two connections to node NC_05.  This node is used by J:U5:1.
WARNING: Less than two connections to node NC_04.  This node is used by J:U5:2.
Per .tran options, skipping operating point for transient analysis.
Ignoring empty pin current: Ix(u8:en)

Date: Sat Nov 02 12:20:10 2019
Total elapsed time: 0.394 seconds.

tnom = 27
temp = 27
method = modified trap
totiter = 2272
traniter = 2272
tranpoints = 1129
accept = 1112
rejected = 17
matrix size = 252
fillins = 568
solver = Normal
Thread vector: 35.5/19.8[6] 10.8/6.8[6] 10.4/7.2[6] 2.5/3.3[1]  2592/500
Matrix Compiler1: 45.40 KB object code size  18.7/11.4/[4.6]
Matrix Compiler2: 31.54 KB object code size  8.3/8.2/[3.2]

