Circuit: * C:\Users\Dani\Desktop\cuarto\EE005_CONT\laboratorios\control_sallen_key\lazo_cerrado\Draft4.asc

Direct Newton iteration for .op point succeeded.

Date: Sat Sep 14 23:18:10 2019
Total elapsed time: 0.180 seconds.

tnom = 27
temp = 27
method = trap
totiter = 30
traniter = 0
tranpoints = 0
accept = 0
rejected = 0
matrix size = 54
fillins = 111
solver = Normal
Matrix Compiler1:     517 opcodes
Matrix Compiler2: 6.54 KB object code size
