Circuit: * C:\Users\Dani\Desktop\cuarto\EE005_CONT\laboratorios\control_sallen_key\lazo_cerrado\Draft1.asc

WARNING: Less than two connections to node IDEAL.  This node is used by E:U4:1.
WARNING: Less than two connections to node PLANTA.  This node is used by E:U3:1.
Early termination of direct N-R iteration.
Direct Newton iteration failed to find .op point.  (Use ".option noopiter" to skip.)
Starting Gmin stepping
Gmin = 10
vernier = 0.5
vernier = 0.25
vernier = 0.125
Gmin = 5.5165
vernier = 0.0625
vernier = 0.03125
vernier = 0.015625
vernier = 0.0078125
Gmin = 5.48432
vernier = 0.00390625
vernier = 0.00195313
vernier = 0.000976563
vernier = 0.000488281
Gmin = 0
Gmin stepping succeeded in finding the operating point.

Ignoring empty pin current: Ix(u4:en)
Ignoring empty pin current: Ix(u3:en)
Ignoring empty pin current: Ix(u4:en)
Ignoring empty pin current: Ix(u3:en)

Date: Sun Sep 15 18:38:24 2019
Total elapsed time: 0.231 seconds.

tnom = 27
temp = 27
method = trap
totiter = 1428
traniter = 0
tranpoints = 0
accept = 0
rejected = 0
matrix size = 57
fillins = 142
solver = Normal
Matrix Compiler1:     546 opcodes
Matrix Compiler2: 6.96 KB object code size  1.3/1.7/[0.7]

