Circuit: * C:\Users\Dani\Desktop\cuarto\EE005_CONT\laboratorios\control_sallen_key\lazo_cerrado\Draft2.asc

WARNING: Less than two connections to node N006.  This node is used by E:U4:1.
Per .tran options, skipping operating point for transient analysis.
Ignoring empty pin current: Ix(u3:en1)
Ignoring empty pin current: Ix(u3:en2)
Ignoring empty pin current: Ix(u4:en)

Date: Sat Nov 02 12:47:21 2019
Total elapsed time: 1.589 seconds.

tnom = 27
temp = 27
method = modified trap
totiter = 63685
traniter = 63685
tranpoints = 31832
accept = 31760
rejected = 72
matrix size = 62
fillins = 150
solver = Normal
Matrix Compiler1: 12.12 KB object code size  6.5/4.5/[1.3]
Matrix Compiler2: 7.46 KB object code size  2.2/3.0/[0.8]

