Circuit: * C:\Users\Dani\Desktop\cuarto\EE005_CONT\laboratorios\control_sallen_key\lazo_cerrado\lazo_integrador.asc

Early termination of direct N-R iteration.
Direct Newton iteration failed to find .op point.  (Use ".option noopiter" to skip.)
Starting Gmin stepping
Gmin = 10
vernier = 0.5
vernier = 0.25
vernier = 0.125
Gmin = 5.5165
vernier = 0.0625
vernier = 0.03125
vernier = 0.015625
vernier = 0.0078125
Gmin = 5.46306
vernier = 0.00390625
vernier = 0.00195313
vernier = 0.000976563
vernier = 0.000488281
Gmin = 5.45907
Gmin = 0
Gmin stepping failed

Starting source stepping with srcstepmethod=0
Source Step = 3.0303%
Source Step = 33.3333%
Source Step = 63.6364%
Source Step = 93.9394%
Source stepping succeeded in finding the operating point.


Date: Sat Oct 26 15:42:18 2019
Total elapsed time: 0.490 seconds.

tnom = 27
temp = 27
method = trap
totiter = 1663
traniter = 0
tranpoints = 0
accept = 0
rejected = 0
matrix size = 78
fillins = 526
solver = Normal
Matrix Compiler1:    3110 opcodes
Matrix Compiler2: 15.89 KB object code size  3.1/3.2/[1.0]

