Circuit: * C:\Users\Dani\Desktop\cuarto\EE005_CONT\laboratorios\control_sallen_key\lazo_cerrado\lazo_sk_step.asc

Per .tran options, skipping operating point for transient analysis.
Ignoring empty pin current: Ix(u6:en)

Date: Sat Oct 26 17:26:48 2019
Total elapsed time: 0.443 seconds.

tnom = 27
temp = 27
method = modified trap
totiter = 2454
traniter = 2454
tranpoints = 1224
accept = 1183
rejected = 41
matrix size = 199
fillins = 461
solver = Normal
Thread vector: 28.1/18.0[5] 9.1/5.8[5] 8.6/5.8[5] 2.1/2.7[1]  2592/500
Matrix Compiler1: 37.21 KB object code size  15.0/10.0/[3.7]
Matrix Compiler2: 25.29 KB object code size  6.4/9.1/[2.5]

